LTspice 24.0.9 for Windows
Circuit: * C:\ONEDRIVE\OneDrive - Università di Napoli Federico II\FILE UNI\LTspice_circuiti\DCLoad2\tl43\tl431.asc
Start Time: Sun Aug 18 20:43:27 2024
solver = Normal
Maximum thread count: 12
tnom = 27
temp = 27
method = modified trap
Total elapsed time: 0.039 seconds.

