LTspice 24.0.9 for Windows
Circuit: * C:\ONEDRIVE\OneDrive - Università di Napoli Federico II\FILE UNI\LTspice_circuiti\DCLoad2\test ringing\ringing.asc
Start Time: Sat May 18 22:36:25 2024
v2: both pins shorted together -- ignoring.
b1: both pins shorted together -- ignoring.
v3: both pins shorted together -- ignoring.
msb_dac7: both pins shorted together -- ignoring.
l5: both pins shorted together -- ignoring.
l6: both pins shorted together -- ignoring.
solver = Normal
Maximum thread count: 12
tnom = 27
temp = 27
method = modified trap
WARNING: Node NC_01 is floating.
WARNING: Node NC_02 is floating.
WARNING: Node N009 is floating.

WARNING: Less than two connections to node nc_02.  This node is used by r:u1:g.
WARNING: Less than two connections to node n008.  This node is used by r3.
Direct Newton iteration for .op point succeeded.
Total elapsed time: 0.062 seconds.

