Circuit: * C:\Users\pierp\OneDrive - Università di Napoli Federico II\FILE UNI\LTspice_circuiti\DCLoad2\PID\PID.asc

Direct Newton iteration failed to find .op point.  (Use ".option noopiter" to skip.)
Starting Gmin stepping
Gmin = 10
Gmin = 1.07374
Gmin = 0.115292
Gmin = 0.0123794
Gmin = 0.00132923
Gmin = 0.000142725
Gmin = 1.5325e-005
Gmin = 1.6455e-006
Gmin = 1.76685e-007
Gmin = 1.89714e-008
Gmin = 2.03704e-009
Gmin = 2.18725e-010
Gmin = 2.34854e-011
Gmin = 0
Gmin stepping succeeded in finding the operating point.

.step c=1e-012
.step c=1e-011
.step c=1e-010
.step c=1e-009
.step c=1e-008
.step c=1e-007
.step c=1e-006
.step c=1e-005

Date: Sun Feb 11 16:10:30 2024
Total elapsed time: 0.348 seconds.

tnom = 27
temp = 27
method = trap
totiter = 308
traniter = 0
tranpoints = 0
accept = 0
rejected = 0
matrix size = 57
fillins = 62
solver = Normal
Matrix Compiler1:     395 opcodes
Matrix Compiler2: off  [0.6]/0.9/0.6

