LTspice 24.0.9 for Windows
Circuit: * C:\ONEDRIVE\OneDrive - Università di Napoli Federico II\FILE UNI\LTspice_circuiti\DCLoad2\test buffer\DCLoadbuff.asc
Start Time: Wed Sep 25 19:44:42 2024
v2: both pins shorted together -- ignoring.
v4: both pins shorted together -- ignoring.
rsafety: both pins shorted together -- ignoring.
rsafety1: both pins shorted together -- ignoring.
solver = Normal
Maximum thread count: 12
tnom = 27
temp = 27
method = modified trap
WARNING: Less than two connections to node -5v.  This node is used by v1.
WARNING: Less than two connections to node -vcc.  This node is used by v5.
Total elapsed time: 0.044 seconds.

