Circuit: * C:\Users\pierp\OneDrive - Università di Napoli Federico II\FILE UNI\LTspice_circuiti\DCLoad2\DCLoad3\DCLoad3.asc

Msb_dac: both pins shorted together -- ignoring.
B2: both pins shorted together -- ignoring.
V6: both pins shorted together -- ignoring.
Msb_dac1: both pins shorted together -- ignoring.
WARNING: Node N008 is floating.
WARNING: Node N005 is floating.

WARNING: Less than two connections to node N008.  This node is used by CDB.
WARNING: Less than two connections to node N005.  This node is used by CIB.
Early termination of direct N-R iteration.
Direct Newton iteration failed to find .op point.  (Use ".option noopiter" to skip.)
Starting Gmin stepping
Increasing initial diagonal Gmin to 100
Gmin = 100
vernier = 0.5
vernier = 0.25
Gmin = 34.2672
vernier = 0.125
vernier = 0.0625
vernier = 0.03125
vernier = 0.015625
Gmin = 33.0995
vernier = 0.0078125
vernier = 0.00390625
vernier = 0.00195313
Gmin = 32.9705
vernier = 0.000976563
vernier = 0.000488281
Gmin = 0
Gmin stepping failed

Starting source stepping with srcstepmethod=0
Source Step = 3.0303%
Source Step = 33.3333%
Source Step = 63.6364%
Source Step = 93.9394%
Source stepping succeeded in finding the operating point.


Date: Fri Feb 23 19:12:05 2024
Total elapsed time: 0.355 seconds.

tnom = 27
temp = 27
method = modified trap
totiter = 6721
traniter = 4971
tranpoints = 2317
accept = 1984
rejected = 333
matrix size = 102
fillins = 350
solver = Normal
Thread vector: 7.5/4.9[2] 2.9/2.2[2] 3.5/1.8[2] 0.3/0.6[1]  2592/500
Matrix Compiler1: 32.33 KB object code size  5.2/2.3/[1.8]
Matrix Compiler2: 14.97 KB object code size  1.0/1.3/[0.6]

