LTspice 24.0.9 for Windows
Circuit: * C:\ONEDRIVE\OneDrive - Università di Napoli Federico II\FILE UNI\LTspice_circuiti\DCLoad2\protection\OCP2\Draft1.asc
Start Time: Sat Apr 27 16:16:00 2024
solver = Normal
Maximum thread count: 12
tnom = 27
temp = 27
method = modified trap
Total elapsed time: 0.036 seconds.

