LTspice 24.0.9 for Windows
Circuit: * C:\ONEDRIVE\OneDrive - Università di Napoli Federico II\FILE UNI\LTspice_circuiti\DCLoad2\protection\OCP2\OCP.asc
Start Time: Mon Aug 19 19:19:10 2024
solver = Normal
Maximum thread count: 12
tnom = 27
temp = 27
method = modified trap
Direct Newton iteration failed to find .op point.  (Use ".option noopiter" to skip.)
Starting Gmin stepping
Gmin = 10
Gmin = 1.07374
Gmin = 0.115292
Gmin = 0.0123794
Gmin = 0.00132923
Gmin = 0.000142725
Gmin = 1.5325e-05
Gmin = 1.6455e-06
Gmin = 1.76685e-07
Gmin = 1.89714e-08
Gmin = 2.03704e-09
Gmin = 2.18725e-10
Gmin = 2.34854e-11
Gmin = 2.52173e-12
Gmin = 2.70769e-13
Gmin = 0
Gmin stepping succeeded in finding the operating point.

Heightened Def Con from 2.22614e-11 to 1.1e-09
Heightened Def Con from 1.79689e-06 to 1.79714e-06
Heightened Def Con from 1.88544e-06 to 1.88645e-06
Heightened Def Con from 1.88703e-06 to 1.88903e-06
Heightened Def Con from 1.89104e-06 to 1.89304e-06
Total elapsed time: 0.233 seconds.

