LTspice 24.0.9 for Windows
Circuit: * C:\ONEDRIVE\OneDrive - Università di Napoli Federico II\FILE UNI\LTspice_circuiti\DCLoad2\negrail\negrail.asc
Start Time: Sun Sep 28 01:35:12 2025
v4: both pins shorted together -- ignoring.
solver = Normal
Maximum thread count: 12
tnom = 27
temp = 27
method = modified trap
WARNING: Less than two connections to node nc_01.  This node is used by rload1.
Direct Newton iteration for .op point succeeded.
Total elapsed time: 4.876 seconds.

