LTspice 24.0.9 for Windows
Circuit: * C:\ONEDRIVE\OneDrive - Università di Napoli Federico II\FILE UNI\LTspice_circuiti\DCLoad2\DCLoad4\DCLoad4.asc
Start Time: Tue Aug 13 22:57:09 2024
v2: both pins shorted together -- ignoring.
b1: both pins shorted together -- ignoring.
v3: both pins shorted together -- ignoring.
msb_dac: both pins shorted together -- ignoring.
msb_dac3: both pins shorted together -- ignoring.
msb_dac7: both pins shorted together -- ignoring.
v5: both pins shorted together -- ignoring.
b2: both pins shorted together -- ignoring.
v6: both pins shorted together -- ignoring.
msb_dac1: both pins shorted together -- ignoring.
solver = Normal
Maximum thread count: 12
tnom = 27
temp = 27
method = modified trap
gmin = 1e-10
abstol = 1e-10
reltol = 0.003
WARNING: Node NC_01 is floating.
WARNING: Node NC_02 is floating.
WARNING: Node NC_04 is floating.
WARNING: Node NC_05 is floating.

WARNING: Less than two connections to node nc_01.  This node is used by c7.
WARNING: Less than two connections to node nc_02.  This node is used by c8.
WARNING: Less than two connections to node nc_03.  This node is used by r12.
WARNING: Less than two connections to node nc_04.  This node is used by c2.
WARNING: Less than two connections to node nc_05.  This node is used by c3.
Early termination of direct N-R iteration.
Direct Newton iteration failed to find .op point.  (Use ".option noopiter" to skip.)
Starting Gmin stepping
Gmin = 10
vernier = 0.5
vernier = 0.25
vernier = 0.125
Gmin = 5.5165
vernier = 0.0625
vernier = 0.03125
vernier = 0.015625
vernier = 0.0078125
Gmin = 5.49501
vernier = 0.00390625
vernier = 0.00195312
vernier = 0.000976562
vernier = 0.000488281
Gmin = 5.50104
Gmin = 0
Gmin stepping failed

Starting source stepping with srcstepmethod=0
Source Step = 3.0303%
Source Step = 33.3333%
Source Step = 63.6364%
Source Step = 93.9394%
Source stepping succeeded in finding the operating point.

Heightened Def Con from 0.001 to 0.001
Total elapsed time: 0.459 seconds.

