Circuit: * C:\Users\pierp\OneDrive - Università di Napoli Federico II\FILE UNI\LTspice_circuiti\DCLoad2\tl072\tl072.asc

V2: both pins shorted together -- ignoring.
B1: both pins shorted together -- ignoring.
V3: both pins shorted together -- ignoring.
Msb_dac: both pins shorted together -- ignoring.
Msb_dac3: both pins shorted together -- ignoring.
Msb_dac7: both pins shorted together -- ignoring.
WARNING: Less than two connections to node N008.  This node is used by R24.
Direct Newton iteration failed to find .op point.  (Use ".option noopiter" to skip.)
Starting Gmin stepping
Gmin = 10
vernier = 0.5
vernier = 0.25
vernier = 0.125
Gmin = 5.5165
vernier = 0.0625
vernier = 0.03125
vernier = 0.015625
vernier = 0.0078125
Gmin = 5.49501
vernier = 0.00390625
vernier = 0.00195313
vernier = 0.000976563
vernier = 0.000488281
Gmin = 5.50104
Gmin = 0
Gmin stepping failed

Starting source stepping with srcstepmethod=0
Source Step = 3.0303%
Source Step = 33.3333%
Source Step = 63.6364%
Source Step = 93.9394%
Source stepping succeeded in finding the operating point.


Date: Sat Feb 03 12:06:29 2024
Total elapsed time: 9.400 seconds.

tnom = 27
temp = 27
method = modified trap
totiter = 363379
traniter = 361665
tranpoints = 106120
accept = 71537
rejected = 34583
matrix size = 143
fillins = 275
solver = Normal
Thread vector: 11.9/10.2[2] 3.1/2.5[2] 4.1/1.8[2] 0.4/2.1[1]  2592/500
Matrix Compiler1: 23.51 KB object code size  3.6/1.5/[1.3]
Matrix Compiler2: 17.55 KB object code size  1.7/2.0/[1.0]

