Circuit: * C:\PROG UNI\ONEDRIVE UNI\OneDrive - Università di Napoli Federico II\FILE UNI\LTspice_circuiti\DCLoad2\DCLoad2.asc

V3: both pins shorted together -- ignoring.
V4: both pins shorted together -- ignoring.
WARNING: Less than two connections to node NC_01.  This node is used by B1.
WARNING: Less than two connections to node CVCR.  This node is used by V5.
WARNING: Less than two connections to node CVCRN.  This node is used by V6.
Direct Newton iteration failed to find .op point.  (Use ".option noopiter" to skip.)
Starting Gmin stepping
Gmin = 10
Gmin = 1.07374
Gmin = 0.115292
Gmin = 0.0123794
Gmin = 0.00132923
Gmin = 0.000142725
Gmin = 1.5325e-005
Gmin = 1.6455e-006
Gmin = 1.76685e-007
Gmin = 1.89714e-008
Gmin = 2.03704e-009
Gmin = 2.18725e-010
Gmin = 2.34854e-011
Gmin = 2.52173e-012
Gmin = 2.70769e-013
Gmin = 0
Gmin stepping succeeded in finding the operating point.


Date: Tue Aug 08 21:35:03 2023
Total elapsed time: 0.196 seconds.

tnom = 27
temp = 27
method = modified trap
totiter = 5013
traniter = 4301
tranpoints = 1782
accept = 1611
rejected = 171
matrix size = 91
fillins = 132
solver = Normal
Matrix Compiler1: 10.71 KB object code size  1.7/0.6/[0.6]
Matrix Compiler2: 9.27 KB object code size  0.6/0.7/[0.5]

