Circuit: * C:\Users\pierp\OneDrive - Università di Napoli Federico II\FILE UNI\LTspice_circuiti\DCLoad2\DCLoad2.asc

V2: both pins shorted together -- ignoring.
V3: both pins shorted together -- ignoring.
Msb_dac2: both pins shorted together -- ignoring.
Msb_dac3: both pins shorted together -- ignoring.
Msb_dac7: both pins shorted together -- ignoring.
WARNING: Node N023 is floating.

WARNING: Less than two connections to node NC_01.  This node is used by B1.
WARNING: Less than two connections to node CVCR.  This node is used by V5.
WARNING: Less than two connections to node CVCRN.  This node is used by V6.
WARNING: Less than two connections to node NC_02.  This node is used by R23.
Early termination of direct N-R iteration.
Direct Newton iteration failed to find .op point.  (Use ".option noopiter" to skip.)
Starting Gmin stepping
Gmin = 10
vernier = 0.5
vernier = 0.25
vernier = 0.125
Gmin = 5.5165
vernier = 0.0625
vernier = 0.03125
vernier = 0.015625
vernier = 0.0078125
Gmin = 5.49501
vernier = 0.00390625
vernier = 0.00195313
vernier = 0.000976563
vernier = 0.000488281
Gmin = 5.50104
Gmin = 0
Gmin stepping failed

Starting source stepping with srcstepmethod=0
Source Step = 3.0303%
Source Step = 33.3333%
Source Step = 63.6364%
Source Step = 93.9394%
Source stepping succeeded in finding the operating point.


Date: Sat Feb 03 11:16:24 2024
Total elapsed time: 0.287 seconds.

tnom = 27
temp = 27
method = trap
totiter = 3766
traniter = 0
tranpoints = 0
accept = 0
rejected = 0
matrix size = 137
fillins = 430
solver = Normal
Thread vector: 13.1/9.2[4] 0.0/0.0[0] 5.1/1.9[4] 0.4/0.7[1]  2592/500
Matrix Compiler1:    1663 opcodes  5.2/1.7/[0.9]
Matrix Compiler2: 20.53 KB object code size  1.5/1.9/[0.8]

